Circuit: * C:\Electronics Trunk\Distortion Pedal\BC547B_bjt_curve.asc

.OP point found by inspection.
.step i1=0
.step i1=1e-005
.step i1=2e-005
.step i1=3e-005
.step i1=4e-005
.step i1=5e-005
.step i1=6e-005
.step i1=7e-005
.step i1=8e-005
.step i1=9e-005
.step i1=0.0001
.step i1=0.00011
.step i1=0.00012
.step i1=0.00013
.step i1=0.00014
.step i1=0.00015
.step i1=0.00016
.step i1=0.00017
.step i1=0.00018
.step i1=0.00019
.step i1=0.0002
.step i1=0.00021
.step i1=0.00022
.step i1=0.00023
.step i1=0.00024
.step i1=0.00025
.step i1=0.00026
.step i1=0.00027
.step i1=0.00028
.step i1=0.00029
.step i1=0.0003
.step i1=0.00031
.step i1=0.00032
.step i1=0.00033
.step i1=0.00034
.step i1=0.00035
.step i1=0.00036
.step i1=0.00037
.step i1=0.00038
.step i1=0.00039
.step i1=0.0004
.step i1=0.00041
.step i1=0.00042
.step i1=0.00043
.step i1=0.00044
.step i1=0.00045
.step i1=0.00046
.step i1=0.00047
.step i1=0.00048
.step i1=0.00049
.step i1=0.0005
.step i1=0.00051
.step i1=0.00052
.step i1=0.00053
.step i1=0.00054
.step i1=0.00055
.step i1=0.00056
.step i1=0.00057
.step i1=0.00058
.step i1=0.00059
.step i1=0.0006
.step i1=0.00061
.step i1=0.00062
.step i1=0.00063
.step i1=0.00064
.step i1=0.00065
.step i1=0.00066
.step i1=0.00067
.step i1=0.00068
.step i1=0.00069
.step i1=0.0007
.step i1=0.00071
.step i1=0.00072
.step i1=0.00073
.step i1=0.00074
.step i1=0.00075
.step i1=0.00076
.step i1=0.00077
.step i1=0.00078
.step i1=0.00079
.step i1=0.0008
.step i1=0.00081
.step i1=0.00082
.step i1=0.00083
.step i1=0.00084
.step i1=0.00085
.step i1=0.00086
.step i1=0.00087
.step i1=0.00088
.step i1=0.00089
.step i1=0.0009
.step i1=0.00091
.step i1=0.00092
.step i1=0.00093
.step i1=0.00094
.step i1=0.00095
.step i1=0.00096
.step i1=0.00097
.step i1=0.00098
.step i1=0.00099
.step i1=0.001

Date: Wed Jan 10 11:16:11 2018
Total elapsed time: 1.069 seconds.

tnom = 27
temp = 27
method = trap
totiter = 17654
traniter = 0
tranpoints = 0
accept = 0
rejected = 0
matrix size = 7
fillins = 0
solver = Normal
Matrix Compiler1: 410 bytes object code size  0.5/0.3/[0.1]
Matrix Compiler2: 535 bytes object code size  0.2/0.3/[0.1]

