Circuit: * C:\Electronics Trunk\Overdrive Pedal\Simulations\Distortion.asc

WARNING: Node AUDIO_OUT is floating.

WARNING: Less than two connections to node AUDIO_OUT.  This node is used by C8.
Early termination of direct N-R iteration.
Direct Newton iteration failed to find .op point.  (Use ".option noopiter" to skip.)
Starting Gmin stepping
Gmin = 10
vernier = 0.5
vernier = 0.25
vernier = 0.125
Gmin = 5.5165
vernier = 0.0625
vernier = 0.03125
vernier = 0.015625
vernier = 0.0078125
Gmin = 5.49501
vernier = 0.00390625
vernier = 0.00195313
vernier = 0.000976563
vernier = 0.000488281
Gmin = 5.50104
Gmin = 0
Gmin stepping failed

Starting source stepping with srcstepmethod=0
Source Step = 3.0303%
Source Step = 33.3333%
Source Step = 63.6364%
Source Step = 93.9394%
Source stepping succeeded in finding the operating point.


Date: Fri Jan 26 09:33:50 2018
Total elapsed time: 1.151 seconds.

tnom = 27
temp = 27
method = modified trap
totiter = 10921
traniter = 9249
tranpoints = 3621
accept = 2530
rejected = 1091
matrix size = 70
fillins = 190
solver = Normal
Matrix Compiler1: 12.75 KB object code size  9.3/4.6/[2.6]
Matrix Compiler2: 9.22 KB object code size  7.2/6.4/[2.0]

